168
Lattice="17.021838562107188 0.0 0.0 0.0 17.021838562107188 0.0 0.0 0.0 17.021838562107188" Properties=species:S:1:pos:R:3 pbc="T T T"
Cl       6.09546718       0.93502131       1.56414291
Cl       1.14136196       5.07558179       4.64000793
Cl       1.15329228       4.19855256       1.11445094
Cl       2.08305387       1.34714218       3.36210216
Cl       3.55759337       2.69214152       1.15280608
Cl       2.44292906       6.13776219       2.69860755
Cl       6.86446692       4.30195265       4.89234473
Cl      12.64950897      10.31367157       6.81011522
Cl      15.11860144      13.16709555       8.77022751
Cl      15.70410502      12.65940418      12.43194173
Cl      13.04970758      11.80571332      12.81357534
Cl      12.08519121       8.40701073      12.64918112
Cl      11.36497121       8.87448682       8.74286698
Cl      15.86090037      10.79944762      10.19286241
Cl       7.65155988       8.53499960       4.81652246
Cl       4.80930347       6.20925912       4.26108319
Cl      10.43812097       5.59653886       3.17108277
Cl       9.07779863       9.72026969       6.99650892
Cl      10.74669620       8.22143214       4.35446277
Cl       6.11599616      10.87402185       4.71654182
Cl       9.24918215      10.21983645      15.52197427
Cl      11.05038894      13.11004306      13.42816341
Cl      12.81595560      15.72389466      11.40839645
Cl       6.67193376      13.29777077      13.99147905
Cl       8.94770830      15.88400584      15.83227659
Cl      11.03003308      15.93768017      13.44802920
Cl      11.89167019      11.13010575      15.46843769
Cl       9.05900093      13.14733563      15.56899286
Cl      11.72835910      11.10723673      11.46196002
Cl       7.26117853      10.11513112      12.76406811
Cl       3.02269003      11.91362446      11.36703114
Cl       1.46764532       9.29617722      10.50393446
Cl       5.50105096      12.30174244      13.08267948
Cl       8.65678253      12.44016958      13.65675094
Cl       4.77452913       9.68242055      10.86266332
Cl       7.46669368      11.98721252      10.49700639
Cl      11.74106897       4.60751391      15.49079833
Cl       5.48962090       6.19130058      15.81913871
Cl      10.33064821       6.45558998      13.38098484
Cl      10.57542673       3.07221586      13.54300027
Cl       5.31876417       7.86869893      11.47835322
Cl       7.37141556       9.84190846      10.57893181
Cl       7.64676044       8.12109246      13.42342189
Cl       9.96591661       7.71801066      10.81866389
Cl      10.70539622       2.97473733      16.07233500
Cl       9.74221586       4.56148558      13.76560721
Cl      12.50979715       3.06920656      13.78435394
Cl       7.70911802       2.97799503      16.17568982
Cl       7.45630954       6.22039393      15.79420919
Cl       9.65128155       1.01682942      13.95202698
Cl      11.58283864      11.88280550       1.45843385
Cl      13.78524096       9.49023036       5.08231015
Cl      15.02547691       7.14685881       3.89070249
Cl      10.31463150      14.49284288       2.80044620
Cl      12.42623506       9.49219834       2.53488720
Cl      15.78294761      10.38540716       2.92294927
Cl       9.66499897      11.12366061       3.52369117
Cl       6.79332174       3.17125793      10.35410784
Cl       8.90665688       5.07866585       9.67451928
Cl      11.94822140       6.24394131       9.28608401
Cl       8.96395939       3.17737283      12.43994310
Cl       6.29849451       5.62586201      12.02421802
Cl      11.37430148       2.88989276      10.24456877
Cl      13.04222900       3.82412971       2.53589410
Cl      11.13539255       4.98150566       6.73710719
Cl       9.64556720       7.34009181       6.28249420
Cl      14.84751033       1.23136531       3.03594581
Cl       9.15730527       4.22942164       4.83517435
Cl      15.07900055       4.56176022       4.61725970
Cl      12.29411394      15.95587458       6.86607471
Cl      14.82232129      15.52942713       0.99995327
Cl      13.36942402      13.56891857       5.68024126
Cl      16.06846163      15.27988383       4.13184302
Cl      10.15502560      14.54074393       5.13438432
Cl       1.68051688      13.49721108      14.18797193
Cl       3.63368361      15.68290708      10.64362581
Cl       4.68381107      13.47945974       8.92128385
Cl       1.86790389      16.00386012      12.67590197
Cl       1.04741941      15.85083573      16.12311872
Cl       3.95428979      13.37535527      12.34160934
Cl       1.42264956      14.07889870       9.89463439
Cl       4.21753190      15.23804620      15.00813720
Cl      10.82167753      12.56299887       6.33484366
Cl       6.97855436      13.89713255      11.05414066
Cl      11.98591812      13.89659507       4.41758976
Cl       8.55762429      13.03528081       8.17447060
Cl      10.05010644      14.99083696      10.44971441
Cl       8.60547201      13.04004568       4.82055948
Cl      13.70793946       1.80513999      15.48504171
Cl      16.07356202       5.84033641      13.24343882
Cl      15.66449090       9.46505851      12.97430221
Cl      13.88766251       4.92816359      15.35407005
Cl      14.15242718       3.32439592      12.44247530
Cl      15.59534444       7.58598933      15.94264111
Cl       6.07327760      14.71484743       6.84867337
Cl       6.48677055      12.75246592       2.49032675
Cl       8.78640070      12.89269836       1.59178712
Cl       3.25862442      14.27175214       7.66618553
Cl       7.97884629      11.30393272       4.42547447
Cl       4.23957577      16.03280063       5.06105018
Cl       6.88787116       6.86337528       9.76466704
Cl       2.86332874       4.55713533       8.23926969
Cl       2.20257444       3.06054047      10.47467640
Cl       4.35467100       6.82720999       7.97802668
Cl       2.24014060       6.42797434      10.41252761
Cl       7.30648081       5.17787263       7.35062655
Cl       8.41484828      10.62473913       8.86785280
Cl       4.31018769      12.18341693       6.94471908
Cl       3.00268744       9.85941847       6.36409513
Cl       6.59754879      12.81190155       9.07291351
Cl       6.24640188       9.98358918       7.26539014
Cl      16.07373138       6.35025889       7.86417202
Cl      13.93671400       8.54622853       8.33241957
Cl      13.97318120       5.78488297       9.80144635
Na       4.04195954       8.03818436       4.25533882
Na       6.00709659       7.13653921       2.46284198
Na      13.41355342       9.89130744      10.43497110
Na      13.79405817       9.71516246      14.41680778
Na      12.30108890      14.01059831      11.09047303
Na      10.46261219       9.09342314       1.52464816
Na       7.72956479       5.87870464       3.73057550
Na       5.98109096       7.35230344       6.60233501
Na       8.72892041      13.22069662      11.85153116
Na       2.70980092      10.07349188      13.62892913
Na       8.69782559       4.67817230      15.58081679
Na       4.69282017       7.21016421      14.08346618
Na       4.96761305      10.15517942      12.99161730
Na      12.89629631      12.16868628       3.97405703
Na       5.63343147       2.45557791      13.00937057
Na      12.26184407       2.66689847       5.14684004
Na      12.86046861      15.99880781       3.78041179
Na       5.05568211      12.57229423       4.92390922
Na       5.24909514       4.40242478      10.08867282
Na       3.89828921      10.68766651       9.31736147
Na       8.78625109      12.07990229       6.39305791
Na      12.12986907       7.97310124      10.41289928
Na      15.75257431       7.90786660       5.24193637
Na      14.39950875       8.73335817      11.46811755
U        4.79675114       4.63342576       2.71419513
U        7.04835037       3.76437907       1.14267643
U        3.45019744       3.22847739       5.13116454
U       12.48911672      12.16665081       8.85302683
U       15.02932394       7.70889668      10.29193654
U       10.96004971      11.05087289       5.24622249
U        7.42343138       6.65762413       1.12817739
U        7.66581524       9.43105965       1.88877294
U        8.79309317      15.83571181      11.93818640
U       13.84692353      13.86556097      13.21329394
U        7.49603069       6.53248257      13.47516452
U       13.31537212       4.89422277      13.41984348
U        8.40141911       8.14469071      15.57753351
U        9.73378987      10.43378267      12.24083898
U       10.27991083      10.84935414       9.32263287
U        6.55606416       4.67141796      13.90065809
U        4.76225755       4.44935027      15.89990356
U       10.88846982       5.39855549      11.84603281
U       12.02352624       5.95795723       4.43376291
U       14.11757346      13.60670202       2.85962616
U       11.35757827      14.04266117       8.34359895
U        7.98545844      15.62055830       8.77339835
U       10.35887842      15.29397228       6.92990162
U       13.77316355       7.56648237      13.79858348
U       15.97349110       3.32305053      14.64693397
U        7.29015704      14.84506541       4.24524595
U        7.51726568       8.54122291       7.27118443
U       10.05557598      12.92096229       9.68183592
U       12.41032608       6.59654542      12.99871192
U       13.58003310       5.47367225       6.62533954
